!-Generator IDFEditor 1.54
!-Option SortedOrder

!-NOTE: All comments with '!-' are ignored by the IDFEditor and are generated automatically.
!-      Use '!' comments if they need to be retained when using the IDFEditor.


!-   ===========  ALL OBJECTS IN CLASS: VERSION ===========

Version,
    24.2;                    !- Version Identifier


!-   ===========  ALL OBJECTS IN CLASS: SIMULATIONCONTROL ===========

SimulationControl,
    Yes,                     !- Do Zone Sizing Calculation
    No,                      !- Do System Sizing Calculation
    Yes,                     !- Do Plant Sizing Calculation
    No,                      !- Run Simulation for Sizing Periods
    Yes,                     !- Run Simulation for Weather File Run Periods
    ,                        !- Do HVAC Sizing Simulation for Sizing Periods
    ;                        !- Maximum Number of HVAC Sizing Simulation Passes


!-   ===========  ALL OBJECTS IN CLASS: BUILDING ===========

Building,
    CCA,                     !- Name
    35,                      !- North Axis {deg}
    City,                    !- Terrain
    0.04,                    !- Loads Convergence Tolerance Value {W}
    0.4,                     !- Temperature Convergence Tolerance Value {deltaC}
    FullExterior,            !- Solar Distribution
    25,                      !- Maximum Number of Warmup Days
    6;                       !- Minimum Number of Warmup Days


!-   ===========  ALL OBJECTS IN CLASS: SURFACECONVECTIONALGORITHM:INSIDE ===========

SurfaceConvectionAlgorithm:Inside,
    TARP;                    !- Algorithm


!-   ===========  ALL OBJECTS IN CLASS: SURFACECONVECTIONALGORITHM:OUTSIDE ===========

SurfaceConvectionAlgorithm:Outside,
    DOE-2;                   !- Algorithm


!-   ===========  ALL OBJECTS IN CLASS: HEATBALANCEALGORITHM ===========

HeatBalanceAlgorithm,
    ConductionTransferFunction,  !- Algorithm
    200,                     !- Surface Temperature Upper Limit {C}
    0.1,                     !- Minimum Surface Convection Heat Transfer Coefficient Value {W/m2-K}
    1000;                    !- Maximum Surface Convection Heat Transfer Coefficient Value {W/m2-K}


!-   ===========  ALL OBJECTS IN CLASS: TIMESTEP ===========

Timestep,
    6;                       !- Number of Timesteps per Hour


!-   ===========  ALL OBJECTS IN CLASS: SITE:LOCATION ===========

Site:Location,
    Coimbra,                 !- Name
    40.1575,                 !- Latitude {deg}
    -8.4686,                 !- Longitude {deg}
    0.0,                     !- Time Zone {hr}
    171.8;                   !- Elevation {m}


!-   ===========  ALL OBJECTS IN CLASS: SIZINGPERIOD:DESIGNDAY ===========

SizingPeriod:DesignDay,
    Coimbra.AP Ann Htg 99.6% Condns DB,  !- Name
    1,                       !- Month
    21,                      !- Day of Month
    WinterDesignDay,         !- Day Type
    2.5,                     !- Maximum Dry-Bulb Temperature {C}
    0,                       !- Daily Dry-Bulb Temperature Range {deltaC}
    DefaultMultipliers,      !- Dry-Bulb Temperature Range Modifier Type
    ,                        !- Dry-Bulb Temperature Range Modifier Day Schedule Name
    WetBulb,                 !- Humidity Condition Type
    2.5,                     !- Wetbulb or DewPoint at Maximum Dry-Bulb {C}
    ,                        !- Humidity Condition Day Schedule Name
    ,                        !- Humidity Ratio at Maximum Dry-Bulb {kgWater/kgDryAir}
    ,                        !- Enthalpy at Maximum Dry-Bulb {J/kg}
    ,                        !- Daily Wet-Bulb Temperature Range {deltaC}
    99278,                   !- Barometric Pressure {Pa}
    1.8,                     !- Wind Speed {m/s}
    70,                      !- Wind Direction {deg}
    No,                      !- Rain Indicator
    No,                      !- Snow Indicator
    No,                      !- Daylight Saving Time Indicator
    ASHRAEClearSky,          !- Solar Model Indicator
    ,                        !- Beam Solar Day Schedule Name
    ,                        !- Diffuse Solar Day Schedule Name
    ,                        !- ASHRAE Clear Sky Optical Depth for Beam Irradiance (taub) {dimensionless}
    ,                        !- ASHRAE Clear Sky Optical Depth for Diffuse Irradiance (taud) {dimensionless}
    0;                       !- Sky Clearness

SizingPeriod:DesignDay,
    Coimbra.AP Ann Clg .4% Condns DB=>MWB,  !- Name
    8,                       !- Month
    21,                      !- Day of Month
    SummerDesignDay,         !- Day Type
    33.8,                    !- Maximum Dry-Bulb Temperature {C}
    16.3,                    !- Daily Dry-Bulb Temperature Range {deltaC}
    DefaultMultipliers,      !- Dry-Bulb Temperature Range Modifier Type
    ,                        !- Dry-Bulb Temperature Range Modifier Day Schedule Name
    WetBulb,                 !- Humidity Condition Type
    20.4,                    !- Wetbulb or DewPoint at Maximum Dry-Bulb {C}
    ,                        !- Humidity Condition Day Schedule Name
    ,                        !- Humidity Ratio at Maximum Dry-Bulb {kgWater/kgDryAir}
    ,                        !- Enthalpy at Maximum Dry-Bulb {J/kg}
    6.3,                     !- Daily Wet-Bulb Temperature Range {deltaC}
    99278,                   !- Barometric Pressure {Pa}
    3.2,                     !- Wind Speed {m/s}
    320,                     !- Wind Direction {deg}
    No,                      !- Rain Indicator
    No,                      !- Snow Indicator
    No,                      !- Daylight Saving Time Indicator
    ASHRAETau2017,           !- Solar Model Indicator
    ,                        !- Beam Solar Day Schedule Name
    ,                        !- Diffuse Solar Day Schedule Name
    0.384,                   !- ASHRAE Clear Sky Optical Depth for Beam Irradiance (taub) {dimensionless}
    2.379;                   !- ASHRAE Clear Sky Optical Depth for Diffuse Irradiance (taud) {dimensionless}


!-   ===========  ALL OBJECTS IN CLASS: SIZINGPERIOD:WEATHERFILEDAYS ===========

SizingPeriod:WeatherFileDays,
    SizingPeriod,            !- Name
    1,                       !- Begin Month
    1,                       !- Begin Day of Month
    12,                      !- End Month
    31,                      !- End Day of Month
    Sunday,                  !- Day of Week for Start Day
    Yes,                     !- Use Weather File Daylight Saving Period
    Yes;                     !- Use Weather File Rain and Snow Indicators


!-   ===========  ALL OBJECTS IN CLASS: RUNPERIOD ===========

RunPeriod,
    Annual,                  !- Name
    1,                       !- Begin Month
    1,                       !- Begin Day of Month
    ,                        !- Begin Year
    12,                      !- End Month
    31,                      !- End Day of Month
    ,                        !- End Year
    ,                        !- Day of Week for Start Day
    Yes,                     !- Use Weather File Holidays and Special Days
    Yes,                     !- Use Weather File Daylight Saving Period
    No,                      !- Apply Weekend Holiday Rule
    Yes,                     !- Use Weather File Rain Indicators
    Yes;                     !- Use Weather File Snow Indicators


!-   ===========  ALL OBJECTS IN CLASS: RUNPERIODCONTROL:DAYLIGHTSAVINGTIME ===========

RunPeriodControl:DaylightSavingTime,
    2nd Sunday in March,     !- Start Date
    1st Sunday in November;  !- End Date


!-   ===========  ALL OBJECTS IN CLASS: SITE:GROUNDTEMPERATURE:BUILDINGSURFACE ===========

Site:GroundTemperature:BuildingSurface,
    15,                      !- January Ground Temperature {C}
    15,                      !- February Ground Temperature {C}
    15,                      !- March Ground Temperature {C}
    16,                      !- April Ground Temperature {C}
    17,                      !- May Ground Temperature {C}
    17,                      !- June Ground Temperature {C}
    18,                      !- July Ground Temperature {C}
    18,                      !- August Ground Temperature {C}
    18,                      !- September Ground Temperature {C}
    17,                      !- October Ground Temperature {C}
    16,                      !- November Ground Temperature {C}
    15;                      !- December Ground Temperature {C}


!-   ===========  ALL OBJECTS IN CLASS: SITE:WATERMAINSTEMPERATURE ===========

!
!
!
! Site:GroundTemperature:BuildingSurface,
!     15,                      !- January Ground Temperature {C}
!     15,                      !- February Ground Temperature {C}
!     15,                      !- March Ground Temperature {C}
!     16,                      !- April Ground Temperature {C}
!     17,                      !- May Ground Temperature {C}
!     17,                      !- June Ground Temperature {C}
!     18,                      !- July Ground Temperature {C}
!     18,                      !- August Ground Temperature {C}
!     18,                      !- September Ground Temperature {C}
!     17,                      !- October Ground Temperature {C}
!     16,                      !- November Ground Temperature {C}
!     15;                      !- December Ground Temperature {C}
Site:WaterMainsTemperature,
    Correlation,             !- Calculation Method
    ,                        !- Temperature Schedule Name
    15,                      !- Annual Average Outdoor Air Temperature {C}
    10;                      !- Maximum Difference In Monthly Average Outdoor Air Temperatures {deltaC}


!-   ===========  ALL OBJECTS IN CLASS: SCHEDULETYPELIMITS ===========

ScheduleTypeLimits,
    SCH_TYP_LIMITS_FRACTION, !- Name
    0.0,                     !- Lower Limit Value
    1.0,                     !- Upper Limit Value
    CONTINUOUS,              !- Numeric Type
    Availability;            !- Unit Type

ScheduleTypeLimits,
    SCH_TYP_LIMITS_PEOPLE_ACTIVITY,  !- Name
    80.0,                    !- Lower Limit Value
    400.0,                   !- Upper Limit Value
    Continuous,              !- Numeric Type
    Power;                   !- Unit Type

ScheduleTypeLimits,
    SCH_TYP_TEMP,            !- Name
    -100,                    !- Lower Limit Value
    100,                     !- Upper Limit Value
    Continuous,              !- Numeric Type
    Temperature;             !- Unit Type

ScheduleTypeLimits,
    HVACTemplate Any Number; !- Name


!-   ===========  ALL OBJECTS IN CLASS: SCHEDULE:COMPACT ===========

Schedule:Compact,
    SCH_TREE_TRANSPARENCY,   !- Name
    SCH_TYP_LIMITS_FRACTION, !- Schedule Type Limits Name
    Through: 12/31,          !- Field 1
    For: AllDays,            !- Field 2
    Until: 24:00,            !- Field 3
    0.2;                     !- Field 4

Schedule:Compact,
    SCH_WINDOW_SHUTTERS,     !- Name
    SCH_TYP_LIMITS_FRACTION, !- Schedule Type Limits Name
    Through: 7/31,           !- Field 1
    For: Weekdays,           !- Field 2
    Until: 9:00,             !- Field 3
    1.0,                     !- Field 4
    Until: 18:00,            !- Field 5
    0.0,                     !- Field 6
    Until: 24:00,            !- Field 7
    1.0,                     !- Field 8
    For: AllOtherDays,       !- Field 9
    Until: 24:00,            !- Field 10
    1.0,                     !- Field 11
    Through: 8/31,           !- Field 12
    For: AllDays,            !- Field 13
    Until: 24:00,            !- Field 14
    1.0,                     !- Field 15
    Through: 12/31,          !- Field 16
    For: Weekdays,           !- Field 17
    Until: 9:00,             !- Field 18
    1.0,                     !- Field 19
    Until: 18:00,            !- Field 20
    0.0,                     !- Field 21
    Until: 24:00,            !- Field 22
    1.0,                     !- Field 23
    For: AllOtherDays,       !- Field 24
    Until: 24:00,            !- Field 25
    1.0;                     !- Field 26

Schedule:Compact,
    SCH_OFFICE_AND_HVAC_AND_EQUIPMENT,  !- Name
    SCH_TYP_LIMITS_FRACTION, !- Schedule Type Limits Name
    Through: 7/31,           !- Field 1
    For: Weekdays,           !- Field 2
    Until: 9:00,             !- Field 3
    0.0,                     !- Field 4
    Until: 18:00,            !- Field 5
    1.0,                     !- Field 6
    Until: 24:00,            !- Field 7
    0.0,                     !- Field 8
    For: AllOtherDays,       !- Field 9
    Until: 24:00,            !- Field 10
    0.0,                     !- Field 11
    Through: 8/31,           !- Field 12
    For: AllDays,            !- Field 13
    Until: 24:00,            !- Field 14
    0.0,                     !- Field 15
    Through: 12/31,          !- Field 16
    For: Weekdays,           !- Field 17
    Until: 9:00,             !- Field 18
    0.0,                     !- Field 19
    Until: 18:00,            !- Field 20
    1.0,                     !- Field 21
    Until: 24:00,            !- Field 22
    0.0,                     !- Field 23
    For: AllOtherDays,       !- Field 24
    Until: 24:00,            !- Field 25
    0.0;                     !- Field 26

Schedule:Compact,
    SCH_MEETINGROOM_HVAC_PEOPLE_LIGHTS_EQUIPMENT,  !- Name
    SCH_TYP_LIMITS_FRACTION, !- Schedule Type Limits Name
    Through: 7/31,           !- Field 1
    For: Wednesday,          !- Field 2
    Until: 14:00,            !- Field 3
    0.0,                     !- Field 4
    Until: 16:00,            !- Field 5
    1.0,                     !- Field 6
    Until: 24:00,            !- Field 7
    0.0,                     !- Field 8
    For: AllOtherDays,       !- Field 9
    Until: 24:00,            !- Field 10
    0.0,                     !- Field 11
    Through: 8/31,           !- Field 12
    For: AllDays,            !- Field 13
    Until: 24:00,            !- Field 14
    0.0,                     !- Field 15
    Through: 12/31,          !- Field 16
    For: Wednesday,          !- Field 17
    Until: 14:00,            !- Field 18
    0.0,                     !- Field 19
    Until: 16:00,            !- Field 20
    1.0,                     !- Field 21
    Until: 24:00,            !- Field 22
    0.0,                     !- Field 23
    For: AllOtherDays,       !- Field 24
    Until: 24:00,            !- Field 25
    0.0;                     !- Field 26

Schedule:Compact,
    SCH_OFFICE_PEOPLE_LIGHTS,!- Name
    SCH_TYP_LIMITS_FRACTION, !- Schedule Type Limits Name
    Through: 7/31,           !- Field 1
    For: Weekdays,           !- Field 2
    Until: 9:00,             !- Field 3
    0.0,                     !- Field 4
    Until: 12:00,            !- Field 5
    1.0,                     !- Field 6
    Until: 13:30,            !- Field 7
    0.0,                     !- Field 8
    Until: 18:00,            !- Field 9
    1.0,                     !- Field 10
    Until: 24:00,            !- Field 11
    0.0,                     !- Field 12
    For: AllOtherDays,       !- Field 13
    Until: 24:00,            !- Field 14
    0.0,                     !- Field 15
    Through: 8/31,           !- Field 16
    For: AllDays,            !- Field 17
    Until: 24:00,            !- Field 18
    0.0,                     !- Field 19
    Through: 12/31,          !- Field 20
    For: Weekdays,           !- Field 21
    Until: 9:00,             !- Field 22
    0.0,                     !- Field 23
    Until: 12:00,            !- Field 24
    1.0,                     !- Field 25
    Until: 13:30,            !- Field 26
    0.0,                     !- Field 27
    Until: 18:00,            !- Field 28
    1.0,                     !- Field 29
    Until: 24:00,            !- Field 30
    0.0,                     !- Field 31
    For: AllOtherDays,       !- Field 32
    Until: 24:00,            !- Field 33
    0.0;                     !- Field 34

Schedule:Compact,
    SCH_KITCHEN_PEOPLE_LIGHTS_EQUIPMENT,  !- Name
    SCH_TYP_LIMITS_FRACTION, !- Schedule Type Limits Name
    Through: 7/31,           !- Field 1
    For: Weekdays,           !- Field 2
    Until: 9:00,             !- Field 3
    0.0,                     !- Field 4
    Until: 9:10,             !- Field 5
    1.0,                     !- Field 6
    Until: 12:10,            !- Field 7
    0.0,                     !- Field 8
    Until: 13:20,            !- Field 9
    1.0,                     !- Field 10
    Until: 16:00,            !- Field 11
    0.0,                     !- Field 12
    Until: 16:20,            !- Field 13
    1.0,                     !- Field 14
    Until: 24:00,            !- Field 15
    0.0,                     !- Field 16
    For: AllOtherDays,       !- Field 17
    Until: 24:00,            !- Field 18
    0.0,                     !- Field 19
    Through: 8/31,           !- Field 20
    For: AllDays,            !- Field 21
    Until: 24:00,            !- Field 22
    0.0,                     !- Field 23
    Through: 12/31,          !- Field 24
    For: Weekdays,           !- Field 25
    Until: 9:00,             !- Field 26
    0.0,                     !- Field 27
    Until: 9:10,             !- Field 28
    1.0,                     !- Field 29
    Until: 12:10,            !- Field 30
    0.0,                     !- Field 31
    Until: 13:20,            !- Field 32
    1.0,                     !- Field 33
    Until: 16:00,            !- Field 34
    0.0,                     !- Field 35
    Until: 16:20,            !- Field 36
    1.0,                     !- Field 37
    Until: 24:00,            !- Field 38
    0.0,                     !- Field 39
    For: AllOtherDays,       !- Field 40
    Until: 24:00,            !- Field 41
    0.0;                     !- Field 42

Schedule:Compact,
    SCH_OFFICE_HEATING,      !- Name
    SCH_TYP_TEMP,            !- Schedule Type Limits Name
    Through: 7/31,           !- Field 1
    For: Weekdays,           !- Field 2
    Until: 9:00,             !- Field 3
    -50,                     !- Field 4
    Until: 18:00,            !- Field 5
    20,                      !- Field 6
    Until: 24:00,            !- Field 7
    -50,                     !- Field 8
    For: AllOtherDays,       !- Field 9
    Until: 24:00,            !- Field 10
    -50,                     !- Field 11
    Through: 8/31,           !- Field 12
    For: AllDays,            !- Field 13
    Until: 24:00,            !- Field 14
    -50,                     !- Field 15
    Through: 12/31,          !- Field 16
    For: Weekdays,           !- Field 17
    Until: 9:00,             !- Field 18
    -50,                     !- Field 19
    Until: 18:00,            !- Field 20
    20,                      !- Field 21
    Until: 24:00,            !- Field 22
    -50,                     !- Field 23
    For: AllOtherDays,       !- Field 24
    Until: 24:00,            !- Field 25
    -50;                     !- Field 26

Schedule:Compact,
    SCH_OFFICE_COOLING,      !- Name
    SCH_TYP_TEMP,            !- Schedule Type Limits Name
    Through: 7/31,           !- Field 1
    For: Weekdays,           !- Field 2
    Until: 9:00,             !- Field 3
    50,                      !- Field 4
    Until: 18:00,            !- Field 5
    25,                      !- Field 6
    Until: 24:00,            !- Field 7
    50,                      !- Field 8
    For: AllOtherDays,       !- Field 9
    Until: 24:00,            !- Field 10
    50,                      !- Field 11
    Through: 8/31,           !- Field 12
    For: AllDays,            !- Field 13
    Until: 24:00,            !- Field 14
    50,                      !- Field 15
    Through: 12/31,          !- Field 16
    For: Weekdays,           !- Field 17
    Until: 9:00,             !- Field 18
    50,                      !- Field 19
    Until: 18:00,            !- Field 20
    25,                      !- Field 21
    Until: 24:00,            !- Field 22
    50,                      !- Field 23
    For: AllOtherDays,       !- Field 24
    Until: 24:00,            !- Field 25
    50;                      !- Field 26

Schedule:Compact,
    SCH_F02_MEETINGROOM_HEATING,  !- Name
    SCH_TYP_TEMP,            !- Schedule Type Limits Name
    Through: 7/31,           !- Field 1
    For: Wednesday,          !- Field 2
    Until: 14:00,            !- Field 3
    -50,                     !- Field 4
    Until: 16:00,            !- Field 5
    20,                      !- Field 6
    Until: 24:00,            !- Field 7
    -50,                     !- Field 8
    For: AllOtherDays,       !- Field 9
    Until: 24:00,            !- Field 10
    -50,                     !- Field 11
    Through: 8/31,           !- Field 12
    For: AllDays,            !- Field 13
    Until: 24:00,            !- Field 14
    -50,                     !- Field 15
    Through: 12/31,          !- Field 16
    For: Wednesday,          !- Field 17
    Until: 14:00,            !- Field 18
    -50,                     !- Field 19
    Until: 16:00,            !- Field 20
    20,                      !- Field 21
    Until: 24:00,            !- Field 22
    -50,                     !- Field 23
    For: AllOtherDays,       !- Field 24
    Until: 24:00,            !- Field 25
    -50;                     !- Field 26

Schedule:Compact,
    SCH_F02_MEETINGROOM_COOLING,  !- Name
    SCH_TYP_TEMP,            !- Schedule Type Limits Name
    Through: 7/31,           !- Field 1
    For: Wednesday,          !- Field 2
    Until: 14:00,            !- Field 3
    50,                      !- Field 4
    Until: 16:00,            !- Field 5
    25,                      !- Field 6
    Until: 24:00,            !- Field 7
    50,                      !- Field 8
    For: AllOtherDays,       !- Field 9
    Until: 24:00,            !- Field 10
    50,                      !- Field 11
    Through: 8/31,           !- Field 12
    For: AllDays,            !- Field 13
    Until: 24:00,            !- Field 14
    50,                      !- Field 15
    Through: 12/31,          !- Field 16
    For: Wednesday,          !- Field 17
    Until: 14:00,            !- Field 18
    50,                      !- Field 19
    Until: 16:00,            !- Field 20
    25,                      !- Field 21
    Until: 24:00,            !- Field 22
    50,                      !- Field 23
    For: AllOtherDays,       !- Field 24
    Until: 24:00,            !- Field 25
    50;                      !- Field 26

Schedule:Compact,
    HVACTemplate-Always 4,   !- Name
    HVACTemplate Any Number, !- Schedule Type Limits Name
    Through: 12/31,          !- Field 1
    For: AllDays,            !- Field 2
    Until: 24:00,            !- Field 3
    4;                       !- Field 4

Schedule:Compact,
    HVACTemplate-Always 1,   !- Name
    HVACTemplate Any Number, !- Schedule Type Limits Name
    Through: 12/31,          !- Field 1
    For: AllDays,            !- Field 2
    Until: 24:00,            !- Field 3
    1;                       !- Field 4

Schedule:Compact,
    HVACTemplate-Always 45,  !- Name
    HVACTemplate Any Number, !- Schedule Type Limits Name
    Through: 12/31,          !- Field 1
    For: AllDays,            !- Field 2
    Until: 24:00,            !- Field 3
    45;                      !- Field 4

Schedule:Compact,
    HVACTemplate-Always 7,   !- Name
    HVACTemplate Any Number, !- Schedule Type Limits Name
    Through: 12/31,          !- Field 1
    For: AllDays,            !- Field 2
    Until: 24:00,            !- Field 3
    7;                       !- Field 4


!-   ===========  ALL OBJECTS IN CLASS: SCHEDULE:CONSTANT ===========

Schedule:Constant,
    SCH_ALWAYS_ON,           !- Name
    SCH_TYP_LIMITS_FRACTION, !- Schedule Type Limits Name
    1.0;                     !- Hourly Value

Schedule:Constant,
    SCH_OFFICE_PEOPLE_ACTIVITY,  !- Name
    SCH_TYP_LIMITS_PEOPLE_ACTIVITY,  !- Schedule Type Limits Name
    110;                     !- Hourly Value


!-   ===========  ALL OBJECTS IN CLASS: SCHEDULE:FILE ===========

Schedule:File,
    SCH_F01MEETINGROOM_PEOPLE,  !- Name
    SCH_TYP_LIMITS_FRACTION, !- Schedule Type Limits Name
    people_quinzenal_schedule_sexta.csv,  !- File Name
    1,                       !- Column Number
    0,                       !- Rows to Skip at Top
    8760,                    !- Number of Hours of Data
    Comma,                   !- Column Separator
    No,                      !- Interpolate to Timestep
    60,                      !- Minutes per Item
    No;                      !- Adjust Schedule for Daylight Savings

Schedule:File,
    SCH_F01_MEETINGROOM_HEATING,  !- Name
    SCH_TYP_TEMP,            !- Schedule Type Limits Name
    F01_meetroom_HVAC_schedule.csv,  !- File Name
    1,                       !- Column Number
    0,                       !- Rows to Skip at Top
    8760,                    !- Number of Hours of Data
    Comma,                   !- Column Separator
    No,                      !- Interpolate to Timestep
    60,                      !- Minutes per Item
    No;                      !- Adjust Schedule for Daylight Savings

Schedule:File,
    SCH_F01_MEETINGROOM_COOLING,  !- Name
    SCH_TYP_TEMP,            !- Schedule Type Limits Name
    F01_meetroom_HVAC_schedule.csv,  !- File Name
    2,                       !- Column Number
    0,                       !- Rows to Skip at Top
    8760,                    !- Number of Hours of Data
    Comma,                   !- Column Separator
    No,                      !- Interpolate to Timestep
    60,                      !- Minutes per Item
    No;                      !- Adjust Schedule for Daylight Savings


!-   ===========  ALL OBJECTS IN CLASS: MATERIAL ===========

Material,
    stucco,                  !- Name
    MediumSmooth,            !- Roughness
    0.025,                   !- Thickness {m}
    0.57,                    !- Conductivity {W/m-K}
    1300,                    !- Density {kg/m3}
    840,                     !- Specific Heat {J/kg-K}
    0.9,                     !- Thermal Absorptance
    0.2,                     !- Solar Absorptance
    0.2;                     !- Visible Absorptance

Material,
    air_gap_30mm,            !- Name
    VerySmooth,              !- Roughness
    0.03,                    !- Thickness {m}
    0.166,                   !- Conductivity {W/m-K}
    1.29,                    !- Density {kg/m3}
    1000,                    !- Specific Heat {J/kg-K}
    0.9,                     !- Thermal Absorptance
    0.7,                     !- Solar Absorptance
    0.7;                     !- Visible Absorptance

Material,
    ceramic_roof_tile,       !- Name
    MediumRough,             !- Roughness
    0.03,                    !- Thickness {m}
    0.41,                    !- Conductivity {W/m-K}
    1100,                    !- Density {kg/m3}
    950,                     !- Specific Heat {J/kg-K}
    0.9,                     !- Thermal Absorptance
    0.7,                     !- Solar Absorptance
    0.7;                     !- Visible Absorptance

Material,
    lightweight_concrete,    !- Name
    Rough,                   !- Roughness
    0.2,                     !- Thickness {m}
    0.85,                    !- Conductivity {W/m-K}
    1500,                    !- Density {kg/m3}
    880,                     !- Specific Heat {J/kg-K}
    0.9,                     !- Thermal Absorptance
    0.65,                    !- Solar Absorptance
    0.65;                    !- Visible Absorptance

Material,
    base_plaster,            !- Name
    Rough,                   !- Roughness
    0.02,                    !- Thickness {m}
    1.3,                     !- Conductivity {W/m-K}
    1900,                    !- Density {kg/m3}
    880,                     !- Specific Heat {J/kg-K}
    0.9,                     !- Thermal Absorptance
    0.3,                     !- Solar Absorptance
    0.2;                     !- Visible Absorptance

Material,
    wood_rods,               !- Name
    MediumRough,             !- Roughness
    0.04,                    !- Thickness {m}
    0.23,                    !- Conductivity {W/m-K}
    750,                     !- Density {kg/m3}
    1758,                    !- Specific Heat {J/kg-K}
    0.9,                     !- Thermal Absorptance
    0.7,                     !- Solar Absorptance
    0.7;                     !- Visible Absorptance

Material,
    wood_pilar,              !- Name
    MediumRough,             !- Roughness
    0.2,                     !- Thickness {m}
    0.23,                    !- Conductivity {W/m-K}
    750,                     !- Density {kg/m3}
    1758,                    !- Specific Heat {J/kg-K}
    0.9,                     !- Thermal Absorptance
    0.7,                     !- Solar Absorptance
    0.7;                     !- Visible Absorptance

Material,
    stone,                   !- Name
    VeryRough,               !- Roughness
    0.7,                     !- Thickness {m}
    2.3,                     !- Conductivity {W/m-K}
    2400,                    !- Density {kg/m3}
    810,                     !- Specific Heat {J/kg-K}
    0.9,                     !- Thermal Absorptance
    0.7,                     !- Solar Absorptance
    0.7;                     !- Visible Absorptance